* PSpice Model Editor - Version 16.6.0
*$
.model Mbreakp PMOS
+LEVEL =1
+NSUB = 5e+14
+TOX=9e-9
+MJ=0.5
+VTO=-0.8
+LD=0.09e-6
+PB=0.9
+MJSW=0.3
+GAMMA=0.4
+UO=100
+CJ=0.94e-3
+CGDO=0.3e-9
+PHI=0.8
+LAMBDA=0.02
+CJSW=0.32e-11
+JS=0.5e-8
+KP=12.5e-6
+L=0.5e-6
*$
.model Mbreakn NMOS
+LEVEL =1
+NSUB=9e+14
+TOX=9e-9
+MJ=0.45
+VTO=0.7
+LD=0.08e-6
+PB=0.9
+MJSW=0.2
+GAMMA=0.45
+UO=350
+CJ=0.56e-3
+PHI=0.9
+LAMBDA=0.01
+CJSW=0.35e-11
+JS=1.0e-8
+KP=50e-6
+L=0.5e-6
*$
